[OPTIONS]
FLOW_UNITS LPS
INFILTRATION HORTON
FLOW_ROUTING DYNWAVE
LINK_OFFSETS DEPTH
MIN_SLOPE 0
ALLOW_PONDING YES
SKIP_STEADY_STATE NO
START_DATE 11/11/2021
START_TIME 00:00:00
REPORT_START_DATE 11/11/2021
REPORT_START_TIME 00:00:00
END_DATE 11/11/2021
END_TIME 00:41:00
SWEEP_START 01/01
SWEEP_END 12/31
DRY_DAYS 0
REPORT_STEP 00:01:00
WET_STEP 00:01:00
DRY_STEP 00:01:00
ROUTING_STEP 0.1
RULE_STEP 00:00:00
INERTIAL_DAMPING PARTIAL
NORMAL_FLOW_LIMITED BOTH
FORCE_MAIN_EQUATION H-W
VARIABLE_STEP 0.75
LENGTHENING_STEP 0
MIN_SURFAREA 12.566
MAX_TRIALS 8
HEAD_TOLERANCE 0.005
SYS_FLOW_TOL 5
LAT_FLOW_TOL 5
MINIMUM_STEP 0.5
THREADS 1

[EVAPORATION]
CONSTANT 0.0
DRY_ONLY NO

[RAINGAGES]
Rain1 VOLUME 0:01 1 TIMESERIES des2

[SUBCATCHMENTS]
C2 Rain1 J3 1.1479 47 220 0.5 0 
C1 Rain1 J2 0.5027 27 220 0.5 0 
C4 Rain1 J4 0.5778 43 250 0.5 0 
C3 Rain1 J5 1.7828 77 400 0.5 0 

[SUBAREAS]
C2 0.01 0.1 0.05 0.05 25 OUTLET 
C1 0.01 0.1 0.05 0.05 25 OUTLET 
C4 0.01 0.1 0.05 0.05 25 OUTLET 
C3 0.01 0.1 0.05 0.05 25 OUTLET 

[INFILTRATION]
C2 30 5 4 7 0
C1 30 5 4 7 0
C4 30 5 4 7 0
C3 30 5 4 7 0

[JUNCTIONS]
J1 100 0 0 0 0
J3 98.5 0 0 0 0
J4 98 0 0 0 0
J2 99 0 0 0 0
J5 97.5 0 0 0 0

[OUTFALLS]
O1 97.2 FREE  NO 

[CONDUITS]
1 J1 J2 55 0.01 0 0 0 0
2 J2 J3 50 0.01 0 0 0 0
3 J3 J4 80 0.01 0 0 0 0
4 J4 J5 60 0.01 0 0 0 0
5 J5 O1 80 0.01 0 0 0 0

[XSECTIONS]
1 CIRCULAR 1 0 0 0 1 
2 CIRCULAR 1 0 0 0 1 
3 CIRCULAR 1 0 0 0 1 
4 CIRCULAR 1 0 0 0 1 
5 CIRCULAR 1 0 0 0 1 

[TIMESERIES]
design1 00:00 0 
design1 00:01 0 
design1 00:02 0.75 
design1 00:03 0.864 
design1 00:04 1.446 
design1 00:05 1.497 
design1 00:06 5.193 
design1 00:07 5.193 
design1 00:08 1.497 
design1 00:09 1.446 
design1 00:10 0.864 
design1 00:11 0.75 
DESIGN2 00:00 0 
DESIGN2 00:01 25 
DESIGN2 00:02 28.8 
DESIGN2 00:03 48.2 
DESIGN2 00:04 49.9 
DESIGN2 00:05 173.1 
DESIGN2 00:06 173.1 
DESIGN2 00:07 49.9 
DESIGN2 00:08 48.2 
DESIGN2 00:09 28.8 
DESIGN2 00:10 25 
des2 00:00 0 
des2 00:01 0 
des2 00:02 1 
des2 00:03 1.5 
des2 00:04 3 
des2 00:05 2 
des2 00:06 1 
des2 00:07 0 
des2 00:08 0 
des2 00:09 0 
des2 00:10 0 
des2 00:11 0 

[REPORT]
SUBCATCHMENTS ALL
NODES ALL
LINKS ALL

[TAGS]
Subcatch C2 Vegetation
Subcatch C1 Vegetation
Subcatch C4 Parking
Subcatch C3 Roof

[MAP]
DIMENSIONS -3598.223 0.000 13598.223 10000.000
Units None

[COORDINATES]
J1 3914.605 5514.765
J3 5215.483 3328.013
J4 4337.59 1660.016
J2 4828.412 4391.46
J5 2685.555 1500.399
O1 133.268 1816.387

[POLYGONS]
C2 4141.165 8568.608
C2 4141.165 8568.608
C2 3993.09 8420.533
C2 3785.785 8075.025
C2 3469.891 7324.778
C2 3331.688 7107.601
C2 3262.586 6900.296
C2 3242.843 6683.119
C2 3390.918 6515.301
C2 3756.17 5972.359
C2 4466.93 5034.551
C2 5227.048 4057.256
C2 5444.225 3405.726
C2 6115.499 2734.452
C2 6470.879 2388.944
C2 6816.387 2201.382
C2 7063.179 2063.179
C2 7191.51 2615.992
C2 7349.457 3366.239
C2 7685.094 4185.587
C2 7625.864 4452.122
C2 7458.045 4965.449
C2 7369.2 5103.653
C2 7280.355 5143.139
C2 7073.05 4797.631
C2 5937.808 5389.931
C2 6095.755 5794.669
C2 3736.426 6959.526
C2 4417.572 8311.945
C2 4141.165 8578.48
C1 3144.126 6604.146
C1 3144.126 6604.146
C1 3321.816 6031.589
C1 3746.298 5508.391
C1 4091.807 5004.936
C1 4358.342 4768.016
C1 4772.952 4333.662
C1 4960.513 3978.282
C1 5059.23 3613.031
C1 5029.615 3395.854
C1 4832.182 3425.469
C1 3440.276 4540.967
C1 1989.141 4461.994
C1 1880.553 6001.974
C1 2532.083 6061.204
C1 2532.083 5834.156
C1 3065.153 5883.514
C1 2867.72 6554.788
C1 3144.126 6604.146
C4 5444.225 3385.982
C4 5444.225 3385.982
C4 6490.622 2369.2
C4 7053.307 2043.435
C4 6865.745 898.322
C4 6757.157 740.375
C4 6559.724 661.402
C4 2660.415 1194.472
C4 2650.543 1382.034
C4 3193.485 1303.06
C4 3608.095 1293.189
C4 4052.32 1382.034
C4 4615.005 1628.825
C4 4851.925 1885.489
C4 5157.947 2221.125
C4 5355.38 2744.324
C4 5424.482 3109.576
C4 5434.353 3395.854
C3 1850.938 6041.461
C3 1850.938 6041.461
C3 2008.885 4461.994
C3 3430.405 4540.967
C3 4812.438 3425.469
C3 5029.615 3395.854
C3 5069.102 2694.965
C3 4615.005 2033.564
C3 4170.78 1717.67
C3 3953.603 1618.954
C3 3400.79 1579.467
C3 1011.846 1934.847
C3 745.311 1865.745
C3 133.268 5932.873
C3 1870.681 6051.333

[SYMBOLS]
Rain1 2255.676 6920.039

[BACKDROP]
FILE "C:\Users\emabdall\OneDrive - NTNU\SINTEF\EviBAN\SWMMmodel\backGROUND2.JPG.jpg"
DIMENSIONS -3598.223 163.500 13598.223 9836.500

[LID_CONTROLS]
BR BC       
BR SURFACE 10 0 0.1 1 5  
BR SOIL 30 0.5 0.2 0.1 0.5 10 3.5
BR STORAGE 400 0.75 0.5 0   
BR DRAIN 0 0.5 6 6 0 0 
RG RG       
RG SURFACE 10 0 0.1 1 5  
RG SOIL 300 0.5 0.2 0.1 0.5 10 3.5
RG STORAGE 0 0.75 0.5 0   
GR GR       
GR SURFACE 10 0.5 0.1 1 5  
GR SOIL 150 0.5 0.2 0.1 0.5 10 3.5
GR DRAINMAT 3 0.5 0.1    
IT IT       
IT SURFACE 10 0 0.1 1 5  
IT STORAGE 300 0.75 0.5 0   
IT DRAIN 1 0.5 6 6 0 0 
PP PP       
PP SURFACE 10 0 0.1 1 5  
PP PAVEMENT 100 0.15 0 100 0 0 0
PP SOIL 30 0.5 0.2 0.1 0.5 10 3.5
PP STORAGE 300 0.75 0.5 0   
PP DRAIN 0 0.5 6 6 0 0 
RB RB       
RB STORAGE 1000 0.75 0.5 0   
RB DRAIN 0 0.5 6 6 0 0 
VS VS       
VS SURFACE 200 0.5 0.1 1 5  

[LID_USAGE]
C2 BR 0 1 1 0 0 0 * *                0
C2 PP 0 1 1 0 0 0 * *                0
C2 VS 0 1 1 0 0 0 * *                0
C1 BR 0 1 1 0 0 0 * *                0
C1 PP 0 1 1 0 0 0 * *                0
C1 VS 0 1 1 0 0 0 * *                0
C4 BR 0 1 1 0 0 0 * *                0
C4 PP 0 1 1 0 0 0 * *                0
C4 VS 0 1 1 0 0 0 * *                0
C3 BR 0 1 1 0 0 0 * *                0
C3 GR 0 1 1 0 0 0 * *                0
C3 PP 0 1 1 0 0 0 * *                0
C3 VS 0 1 1 0 0 0 * *                0

